Version 4
SHEET 1 3012 1140
WIRE 800 192 176 192
WIRE 1088 192 864 192
WIRE 1200 192 1136 192
WIRE 1440 208 1264 208
WIRE 1824 208 1440 208
WIRE 2304 208 1872 208
WIRE 2800 208 2544 208
WIRE 2976 208 2880 208
WIRE 1088 224 1088 192
WIRE 1200 224 1088 224
WIRE 1440 256 1440 208
WIRE 2304 256 2304 208
WIRE 2384 256 2304 256
WIRE 2544 256 2544 208
WIRE 2544 256 2464 256
WIRE 176 272 176 192
WIRE 1824 272 1824 208
WIRE 1872 272 1872 208
WIRE 2304 320 2304 256
WIRE 2384 320 2304 320
WIRE 2544 320 2544 256
WIRE 2544 320 2464 320
WIRE 1824 368 1824 352
WIRE 2304 384 2304 320
WIRE 2384 384 2304 384
WIRE 2544 384 2544 320
WIRE 2544 384 2464 384
WIRE 1136 400 1136 192
WIRE 1440 400 1440 336
WIRE 1440 400 1136 400
WIRE 176 416 176 352
WIRE 1440 448 1440 400
WIRE 1872 448 1872 352
WIRE 2304 448 2304 384
WIRE 2384 448 2304 448
WIRE 2544 448 2544 384
WIRE 2544 448 2464 448
WIRE 2976 448 2976 208
WIRE 2304 512 2304 448
WIRE 2384 512 2304 512
WIRE 2544 512 2544 448
WIRE 2544 512 2464 512
WIRE 1440 560 1440 528
WIRE 2304 576 2304 512
WIRE 2384 576 2304 576
WIRE 2544 576 2544 512
WIRE 2544 576 2464 576
WIRE 2304 640 2304 576
WIRE 2384 640 2304 640
WIRE 2544 640 2544 576
WIRE 2544 640 2464 640
WIRE 2304 704 2304 640
WIRE 2384 704 2304 704
WIRE 2544 704 2544 640
WIRE 2544 704 2464 704
WIRE 2304 768 2304 704
WIRE 2384 768 2304 768
WIRE 2544 768 2544 704
WIRE 2544 768 2464 768
WIRE 2304 832 2304 768
WIRE 2384 832 2304 832
WIRE 2544 832 2544 768
WIRE 2544 832 2464 832
FLAG 176 416 0
FLAG 1440 560 0
FLAG 1824 368 0
FLAG 1872 448 0
FLAG 2976 448 0
SYMBOL voltage 176 256 R0
SYMATTR InstName AD9833
SYMATTR Value SINE(0.344 0.28 500000)
SYMBOL Cap 864 176 R90
WINDOW 0 0 32 VBottom 2
WINDOW 3 32 32 VTop 2
SYMATTR InstName coupling_capacitor
SYMATTR Value 100nF
SYMBOL OpAmps/UniversalOpAmp 1232 208 R0
SYMATTR InstName op_amp
SYMATTR Value2 Avol=1Meg GBW=100Meg Vos=0
SYMBOL Res 1424 240 R0
SYMATTR InstName R1
SYMATTR Value 49000
SYMBOL Res 1424 432 R0
SYMATTR InstName R2
SYMATTR Value 1000
SYMBOL ind2 1808 256 R0
WINDOW 0 -32 26 Left 2
WINDOW 3 -28 68 Left 2
SYMATTR InstName L1
SYMATTR Value 0.004
SYMBOL ind2 1888 368 R180
WINDOW 0 -37 84 Left 2
WINDOW 3 -28 35 Left 2
SYMATTR InstName L2
SYMATTR Value 0.001
SYMBOL Res 2896 192 R90
WINDOW 0 0 56 VBottom 2
WINDOW 3 32 56 VTop 2
SYMATTR InstName piezo
SYMATTR Value 1.9
SYMBOL Res 2480 240 R90
WINDOW 0 0 56 VBottom 2
WINDOW 3 32 56 VTop 2
SYMATTR InstName R3
SYMATTR Value 100
SYMBOL Res 2480 304 R90
WINDOW 0 0 56 VBottom 2
WINDOW 3 32 56 VTop 2
SYMATTR InstName R4
SYMATTR Value 100
SYMBOL Res 2480 368 R90
WINDOW 0 0 56 VBottom 2
WINDOW 3 32 56 VTop 2
SYMATTR InstName R5
SYMATTR Value 100
SYMBOL Res 2480 432 R90
WINDOW 0 0 56 VBottom 2
WINDOW 3 32 56 VTop 2
SYMATTR InstName R6
SYMATTR Value 100
SYMBOL Res 2368 528 R270
WINDOW 0 32 56 VTop 2
WINDOW 3 0 56 VBottom 2
SYMATTR InstName R7
SYMATTR Value 100
SYMBOL Res 2368 592 R270
WINDOW 0 32 56 VTop 2
WINDOW 3 0 56 VBottom 2
SYMATTR InstName R8
SYMATTR Value 100
SYMBOL Res 2368 656 R270
WINDOW 0 32 56 VTop 2
WINDOW 3 0 56 VBottom 2
SYMATTR InstName R9
SYMATTR Value 100
SYMBOL Res 2368 720 R270
WINDOW 0 32 56 VTop 2
WINDOW 3 0 56 VBottom 2
SYMATTR InstName R10
SYMATTR Value 100
SYMBOL Res 2368 784 R270
WINDOW 0 32 56 VTop 2
WINDOW 3 0 56 VBottom 2
SYMATTR InstName R11
SYMATTR Value 100
SYMBOL Res 2368 848 R270
WINDOW 0 32 56 VTop 2
WINDOW 3 0 56 VBottom 2
SYMATTR InstName R13
SYMATTR Value 100
TEXT 744 88 Left 2 !.tran 0 0.00001 0 0.01
TEXT 1792 184 Left 2 !K L1 L2 1
TEXT 1088 120 Left 2 ;GBW=10meg is NOT enough, clips at 7.5V
TEXT 1632 120 Left 2 ;Need to set up some variables and figure out which ratio & impedence to run at, for maximum power while staying under 300mA
